Version 4
SHEET 1 880 680
WIRE -64 48 -64 -16
WIRE 384 48 352 48
WIRE 528 48 528 16
WIRE 384 64 384 48
WIRE 80 80 80 16
WIRE 304 80 80 80
WIRE 352 96 352 48
WIRE 272 144 240 144
WIRE 304 144 304 80
WIRE 304 144 272 144
WIRE 352 144 352 96
WIRE 368 144 352 144
WIRE -64 160 -64 128
WIRE 80 160 80 80
WIRE 112 160 80 160
WIRE 144 160 112 160
WIRE 496 160 464 160
WIRE 528 160 528 48
WIRE 528 160 496 160
WIRE 256 176 240 176
WIRE 304 176 304 144
WIRE 336 176 304 176
WIRE 368 176 336 176
WIRE 256 240 256 176
WIRE 256 288 256 240
FLAG 112 160 VD1
FLAG 496 160 VD2
FLAG 272 144 VG1
FLAG 336 176 VG2
FLAG 352 96 VS2
FLAG 384 64 0
FLAG 256 288 0
FLAG 256 240 VS1
FLAG 80 -64 Vcc
FLAG 528 -64 Vcc
FLAG -64 -16 Vcc
FLAG -64 160 0
FLAG 80 80 V1
FLAG 528 48 V2
SYMBOL AutoGenerated\\N7002 192 160 R0
SYMATTR InstName U1
SYMBOL AutoGenerated\\N7002 416 160 R180
SYMATTR InstName U2
SYMBOL res 64 -80 R0
SYMATTR InstName R1
SYMATTR Value 1k
SYMBOL voltage -64 32 R0
WINDOW 123 0 0 Left 0
WINDOW 39 0 0 Left 0
SYMATTR InstName V1
SYMATTR Value 10
SYMBOL res 512 -80 R0
SYMATTR InstName R2
SYMATTR Value {R}
TEXT 312 288 Left 2 !.op
TEXT 312 256 Left 2 !.step param R 1 100000 10000
