Version 4
SHEET 1 880 680
WIRE -32 48 -32 16
WIRE 112 48 112 16
WIRE 400 48 400 16
WIRE 400 144 400 128
WIRE 400 144 288 144
WIRE -32 160 -32 128
WIRE 112 160 112 128
WIRE 192 160 112 160
WIRE 304 176 288 176
WIRE 400 176 400 144
WIRE 400 256 304 256
WIRE 304 288 304 256
FLAG -32 160 0
FLAG -32 16 Vcc
FLAG 112 16 Vcc
FLAG 400 16 Vcc
FLAG 304 288 0
FLAG 304 176 VS
FLAG 112 160 VD
FLAG 400 144 VG
SYMBOL voltage -32 32 R0
WINDOW 123 0 0 Left 0
WINDOW 39 0 0 Left 0
SYMATTR InstName V1
SYMATTR Value 9
SYMBOL res 128 144 R180
WINDOW 0 36 76 Left 2
WINDOW 3 36 40 Left 2
SYMATTR InstName R1
SYMATTR Value 2k
SYMBOL res 384 32 R0
SYMATTR InstName R3
SYMATTR Value 10k
SYMBOL res 384 160 R0
SYMATTR InstName R4
SYMATTR Value 10k
SYMBOL res 288 160 R0
SYMATTR InstName R2
SYMATTR Value 1k
SYMBOL AutoGenerated\\N7002 240 160 R0
SYMATTR InstName U1
TEXT -66 312 Left 2 !.op
