Version 4
SHEET 1 2440 1220
WIRE 1472 64 1248 64
WIRE 432 80 432 48
WIRE 512 80 432 80
WIRE 624 80 576 80
WIRE 752 80 624 80
WIRE 928 80 752 80
WIRE 1072 80 928 80
WIRE 1184 80 1072 80
WIRE 752 96 752 80
WIRE 1584 96 1248 96
WIRE 1664 96 1584 96
WIRE 1904 96 1744 96
WIRE 2144 96 1904 96
WIRE 2304 96 2144 96
WIRE 288 112 160 112
WIRE 432 112 432 80
WIRE 928 128 928 80
WIRE 1584 128 1584 96
WIRE 1904 128 1904 96
WIRE 160 144 160 112
WIRE 288 144 288 112
WIRE 1872 160 1680 160
WIRE 1072 176 1072 160
WIRE 1072 176 992 176
WIRE 2144 176 2144 96
WIRE 432 208 432 192
WIRE 512 208 432 208
WIRE 1808 208 1776 208
WIRE 2304 208 2304 96
WIRE 432 224 432 208
WIRE 512 224 512 208
WIRE 1584 224 1584 208
WIRE 1712 224 1584 224
WIRE 1872 224 1872 160
WIRE 1904 224 1904 208
WIRE 1904 224 1872 224
WIRE 1584 240 1584 224
WIRE 1808 240 1776 240
WIRE 1904 240 1904 224
WIRE 160 256 160 224
WIRE 240 256 160 256
WIRE 288 256 288 224
WIRE 288 256 240 256
WIRE 1072 256 1072 176
WIRE 1376 256 1312 256
WIRE 1680 256 1680 160
WIRE 1712 256 1680 256
WIRE 1248 272 1168 272
WIRE 1808 272 1776 272
WIRE 240 288 240 256
WIRE 1360 288 1312 288
WIRE 512 304 432 304
WIRE 624 304 624 80
WIRE 624 304 576 304
WIRE 928 304 928 224
WIRE 1008 304 928 304
WIRE 1248 304 1216 304
WIRE 752 320 752 160
WIRE 1392 320 1312 320
WIRE 1472 320 1472 64
WIRE 2144 320 2144 256
WIRE 2144 320 2048 320
WIRE 1584 352 1584 320
WIRE 1808 352 1808 272
WIRE 1904 352 1904 320
WIRE 1904 352 1808 352
WIRE 1072 368 1072 352
WIRE 1168 368 1168 272
WIRE 1168 368 1072 368
WIRE 2144 368 2144 320
WIRE 928 384 928 304
WIRE 1072 384 1072 368
WIRE 1168 400 1168 368
WIRE 1808 400 1808 352
WIRE 1216 432 1216 304
WIRE 1264 432 1216 432
WIRE 1472 448 1472 320
WIRE 2144 464 2144 448
WIRE 2304 464 2304 288
WIRE 2304 464 2144 464
WIRE 2144 480 2144 464
WIRE 928 496 928 464
WIRE 1072 496 1072 448
WIRE 1072 496 928 496
WIRE 1168 496 1168 464
WIRE 1168 496 1072 496
WIRE 1808 496 1808 480
WIRE 1808 496 1568 496
WIRE 928 512 928 496
WIRE 1808 512 1808 496
WIRE 1488 560 1488 544
WIRE 1568 560 1568 496
WIRE 1568 560 1488 560
WIRE 1456 576 1456 544
WIRE 16 624 -48 624
WIRE 144 624 80 624
WIRE 208 624 144 624
WIRE 336 624 272 624
WIRE 368 624 336 624
WIRE 496 624 368 624
WIRE 640 624 496 624
WIRE 816 624 736 624
WIRE 864 624 816 624
WIRE 1808 624 1808 592
WIRE 144 656 144 624
WIRE 336 672 336 624
WIRE 1264 688 1264 432
WIRE 2048 688 2048 320
WIRE 2048 688 1264 688
WIRE 816 704 816 624
WIRE 496 736 496 704
WIRE 688 736 688 688
WIRE 688 736 496 736
WIRE 496 752 496 736
WIRE 144 848 144 720
WIRE 336 848 336 736
WIRE 336 848 144 848
WIRE 496 848 496 816
WIRE 496 848 336 848
WIRE 816 848 816 768
WIRE 816 848 496 848
WIRE 336 880 336 848
FLAG 160 112 Vs
FLAG 432 48 Vin+
FLAG 240 288 0
FLAG -48 624 Vin+
FLAG 368 624 Vc3
FLAG 336 880 0
FLAG 864 624 Vcc
FLAG 512 224 0
FLAG 1376 256 Vcc
FLAG 2144 480 0
FLAG 928 512 0
FLAG 752 320 0
FLAG 1360 288 0
FLAG 1456 576 0
FLAG 1808 240 0
FLAG 1808 208 Vcc
FLAG 1808 624 0
FLAG 1584 352 0
FLAG 2304 96 Vout
SYMBOL Misc\\signal 160 128 R0
WINDOW 3 -218 57 Left 2
WINDOW 123 0 0 Left 0
WINDOW 39 -218 85 Left 2
SYMATTR Value SINE(0 311 60)
SYMATTR SpiceLine Rser=0.00001
SYMATTR InstName V1
SYMBOL ind2 272 128 R0
WINDOW 3 36 68 Left 2
SYMATTR Value 336.11µ
SYMATTR InstName L1
SYMATTR Type ind
SYMBOL ind2 448 208 R180
WINDOW 0 36 80 Left 2
WINDOW 3 36 40 Left 2
SYMATTR InstName L2
SYMATTR Value 1µ
SYMATTR Type ind
SYMBOL ind2 448 320 R180
WINDOW 0 36 80 Left 2
WINDOW 3 36 40 Left 2
SYMATTR InstName L3
SYMATTR Value 1µ
SYMATTR Type ind
SYMBOL diode 512 96 R270
WINDOW 0 32 32 VTop 2
WINDOW 3 0 32 VBottom 2
SYMATTR InstName D1
SYMATTR Value d1n4007
SYMBOL diode 512 320 R270
WINDOW 0 32 32 VTop 2
WINDOW 3 0 32 VBottom 2
SYMATTR InstName D2
SYMATTR Value d1n4007
SYMBOL cap 736 96 R0
SYMATTR InstName C1
SYMATTR Value 9.17m
SYMBOL cap 80 608 R90
WINDOW 0 0 32 VBottom 2
WINDOW 3 32 32 VTop 2
SYMATTR InstName C2
SYMATTR Value 512µ
SYMBOL diode 160 720 R180
WINDOW 0 24 64 Left 2
WINDOW 3 24 0 Left 2
SYMATTR InstName D3
SYMATTR Value d1n4007
SYMBOL diode 208 640 R270
WINDOW 0 32 32 VTop 2
WINDOW 3 0 32 VBottom 2
SYMATTR InstName D4
SYMATTR Value d1n4007
SYMBOL cap 320 672 R0
SYMATTR InstName C3
SYMATTR Value 512µ
SYMBOL res 480 608 R0
SYMATTR InstName R2
SYMATTR Value 1108
SYMBOL zener 512 816 R180
WINDOW 0 24 64 Left 2
WINDOW 3 24 0 Left 2
SYMATTR InstName D5
SYMATTR Value UMZ27K
SYMBOL npn 640 688 R270
SYMATTR InstName Q1
SYMATTR Value 2N3904
SYMBOL cap 800 704 R0
SYMATTR InstName C4
SYMATTR Value 100n
SYMBOL res 1056 64 R0
SYMATTR InstName R1
SYMATTR Value 140
SYMBOL zener 1088 448 R180
WINDOW 0 24 64 Left 2
WINDOW 3 24 0 Left 2
SYMATTR InstName D6
SYMATTR Value UMZ10K
SYMBOL res 2128 160 R0
SYMATTR InstName R3
SYMATTR Value 5k
SYMBOL res 2128 352 R0
SYMATTR InstName R4
SYMATTR Value 10k
SYMBOL AutoGenerated\\irf540 1216 80 R0
SYMATTR InstName U2
SYMBOL AutoGenerated\\LM324 1280 288 R0
SYMATTR InstName U1
SYMBOL pnp 992 224 R180
WINDOW 3 40 60 Left 2
SYMATTR Value 2N3906
SYMATTR InstName Q2
SYMBOL pnp 1008 256 R0
WINDOW 0 68 32 Left 2
WINDOW 3 63 67 Left 2
SYMATTR InstName Q3
SYMATTR Value 2N3906
SYMBOL res 912 368 R0
WINDOW 0 -34 30 Left 2
WINDOW 3 -31 74 Left 2
SYMATTR InstName R5
SYMATTR Value 30k
SYMBOL cap 1152 400 R0
SYMATTR InstName C5
SYMATTR Value 100n
SYMBOL AutoGenerated\\N7002 1472 496 R90
SYMATTR InstName U3
SYMBOL res 1488 304 R90
WINDOW 0 0 56 VBottom 2
WINDOW 3 32 56 VTop 2
SYMATTR InstName R6
SYMATTR Value 10k
SYMBOL res 1568 112 R0
SYMATTR InstName R7
SYMATTR Value 2k
SYMBOL res 1568 224 R0
SYMATTR InstName R8
SYMATTR Value 244.44k
SYMBOL res 1760 80 R90
WINDOW 0 0 56 VBottom 2
WINDOW 3 32 56 VTop 2
SYMATTR InstName R_shunt
SYMATTR Value 30m
SYMBOL AutoGenerated\\LM324 1744 240 R0
SYMATTR InstName U4
SYMBOL res 1888 112 R0
SYMATTR InstName R9
SYMATTR Value 2k
SYMBOL res 1888 224 R0
SYMATTR InstName R10
SYMATTR Value 244.44k
SYMBOL res 1792 384 R0
SYMATTR InstName R11
SYMATTR Value 5k
SYMBOL res 1792 496 R0
SYMATTR InstName R12
SYMATTR Value 5k
SYMBOL res 2288 192 R0
SYMATTR InstName R13
SYMATTR Value 100k
TEXT -64 240 Left 2 !.tran 200m
TEXT -56 144 Left 2 !.inc 1n4007.txt
TEXT 272 336 Left 2 !K L1 L2 L3 1
TEXT -56 104 Left 2 !.inc irf540.lib
