Version 4
SHEET 1 900 680
WIRE 368 16 320 16
WIRE 496 16 368 16
WIRE 96 32 96 -16
WIRE 224 32 96 32
WIRE 496 32 496 16
WIRE 96 48 96 32
WIRE 352 48 320 48
WIRE 352 96 352 48
WIRE 496 144 496 112
WIRE 96 160 96 128
WIRE 96 256 96 240
FLAG 496 144 0
FLAG 352 96 0
FLAG 96 256 0
FLAG 368 16 Vin
FLAG 96 -16 Vout
SYMBOL voltage 496 16 R0
WINDOW 123 0 0 Left 0
WINDOW 39 0 0 Left 0
SYMATTR InstName V1
SYMATTR Value PULSE(0 2.5 0 1p 1p 0.5m 1m)
SYMBOL AutoGenerated\\N7002 272 32 R0
SYMATTR InstName U1
SYMBOL res 80 32 R0
SYMATTR InstName R1
SYMATTR Value 10k
SYMBOL voltage 96 144 R0
WINDOW 123 0 0 Left 0
WINDOW 39 0 0 Left 0
SYMATTR InstName V2
SYMATTR Value 5
TEXT 64 280 Left 2 !.tran 3m
