Version 4
SHEET 1 968 680
WIRE -2112 0 -2544 0
WIRE -2112 96 -2112 0
WIRE -2112 96 -2144 96
WIRE -2240 112 -2432 112
WIRE -2080 128 -2144 128
WIRE -2544 144 -2544 0
WIRE -2432 144 -2432 112
WIRE -2080 176 -2080 128
WIRE -2544 256 -2544 224
WIRE -2432 256 -2432 224
WIRE -2432 256 -2544 256
WIRE -2544 288 -2544 256
FLAG -2544 288 0
FLAG -2080 176 0
SYMBOL voltage -2544 128 R0
WINDOW 123 0 0 Left 0
WINDOW 39 0 0 Left 0
SYMATTR InstName VG
SYMATTR Value 2
SYMBOL voltage -2432 128 R0
WINDOW 123 0 0 Left 0
WINDOW 39 0 0 Left 0
SYMATTR InstName VD
SYMATTR Value 5
SYMBOL AutoGenerated\\N7002 -2192 112 R0
SYMATTR InstName U1
TEXT -2592 376 Left 2 !.dc VD 0 5 0.001 VG 2 10 1
