Version 4
SHEET 1 880 680
WIRE 384 32 -48 32
WIRE 384 128 384 32
WIRE 384 128 320 128
WIRE 256 144 64 144
WIRE 416 160 320 160
WIRE -48 176 -48 32
WIRE 64 176 64 144
WIRE 416 208 416 160
WIRE -48 288 -48 256
WIRE 64 288 64 256
WIRE 64 288 -48 288
WIRE -48 320 -48 288
FLAG -48 320 0
FLAG 416 208 0
SYMBOL voltage -48 160 R0
SYMATTR InstName VG
SYMATTR Value 2
SYMBOL voltage 64 160 R0
WINDOW 123 0 0 Left 0
WINDOW 39 0 0 Left 0
SYMATTR InstName VD
SYMATTR Value 4
SYMBOL AutoGenerated\\2N7002 288 144 R0
SYMATTR InstName U1
TEXT -98 404 Left 2 !.dc VD 0 4 0.001 VG 2 10 1
